150
 energy: -254.459412930153 gnorm: 0.000811721712 xtb: 6.5.1 (579679a)
O           -1.01082964860812       -3.54982414908015       -1.66365617514388
H           -0.39059747238923       -4.19204767002156       -1.29086063114948
H           -0.57970905614751       -2.67588055178029       -1.60608441768383
O            4.45406325670182       -0.52593962287223        2.65297041458700
H            3.61162887940204       -0.58549981773389        3.13408482524395
H            4.47306830837436       -1.30906081686689        2.07293339149393
O            0.70684182970629       -3.09169154554311        1.07355653715449
H            1.29362858580976       -3.26889892887521        1.85106799932158
H            0.87335889781775       -3.79300845643715        0.43443597076560
O            0.30498545965815       -1.15643123069922       -1.69240689254750
H            0.29324331730389       -0.70784745830110       -2.57010988770117
H            0.86624874011765       -0.62849376594827       -1.09963831094604
O            3.92451034626367        1.45190641883428        0.99505232663181
H            4.28678835824335        0.77423619986927        1.61896711442591
H            3.45388933065755        2.09370196582706        1.54869007569521
O            1.73320970014855        1.97736165419512        4.69964298769996
H            0.75655195725500        1.95314380320009        4.94290390290638
H            2.20940595512127        2.16783364200759        5.50728727261183
O            1.58368895734214        1.57502596024220       -2.20096674388283
H            1.75139201365366        2.30703785902158       -1.58357996422713
H            2.38726275299933        1.02551238389340       -2.26130999485982
O           -2.06281357136677        1.80452325198403        2.87993051714867
H           -1.87158844729324        0.88811318664049        2.62052551247772
H           -1.86744521158138        2.35600047176582        2.09524345931917
O           -2.97581224842848       -2.55352206981789        0.04913447609990
H           -2.51537958687456       -2.91555082753720       -0.72460831885064
H           -2.64495690822268       -1.63119531900643        0.13549653033532
O           -0.27131761592290       -3.74294091256899        4.66316642284931
H           -0.92767391819547       -3.81266498872737        3.95749775501964
H           -0.40217186689437       -2.86875164930950        5.07054750523592
O           -3.98281452999535        1.43300753245963       -2.10443364397391
H           -4.41672939370268        1.32762930865854       -1.24610443397604
H           -3.38020428423090        2.18764618673986       -2.00676434594918
O            0.88249268188100        1.77729129102500        0.47261845196966
H            0.72339546304990        0.88621047105405        0.84052517323015
H            1.43552837386382        2.25037725338674        1.11448119301464
O            1.20379790277089       -5.09732273662731       -0.82744854004471
H            1.44882421142541       -5.60187358382462       -1.64860732510057
H            1.89419291033188       -5.32375647477628       -0.17374102937760
O           -5.53650582733312       -1.74901335833933       -0.08511108896093
H           -6.03736328106478       -2.34253350205380        0.47367501384158
H           -4.63148428573733       -2.12497917847219       -0.15238210008148
O           -1.70353826753908       -3.37309810554412        2.23139766314269
H           -2.31034409762189       -3.30205084969569        1.46723561617936
H           -0.81009201154788       -3.31218368689714        1.82810726922027
O            2.24150689495248       -2.93907488748150       -2.06042738696906
H            1.57101276144545       -2.24065709430886       -1.90252641855965
H            1.95101521578009       -3.72022328948469       -1.55003005545118
O            0.23310395570125       -0.53777170511528        1.58256903678579
H            0.48519680507394       -1.39832426197108        1.20232403303174
H           -0.72184225661747       -0.45008760185065        1.41536881075852
O            2.02315821312465       -3.46066903972988        3.32260693444731
H            1.25082051266323       -3.69661652839213        3.88753582024845
H            2.27652326052532       -2.57310927628623        3.59848324187275
O            3.16443844987347       -4.96445268707124        1.02464833842023
H            3.46868543348523       -4.02663853750532        0.96830575317091
H            2.96422705733401       -5.09389051569642        1.95479980491080
O            2.29900679668565        3.18664372285733        2.35454178050736
H            2.07823687362426        2.83362945571772        3.23622693587158
H            1.75361727139332        3.97297882755164        2.20857145135441
O            1.68226009275004        2.82569656616945       -4.50953005805168
H            1.56654794589855        2.22655637132899       -5.24828859879150
H            1.56324210703171        2.28069328479019       -3.69132848465493
O            0.07002677572082       -0.18873676274776       -4.17040243664929
H           -0.68665408694243       -0.72018948198637       -4.51116986177276
H           -0.25308600138001        0.72706469304555       -4.18316741971055
O            2.55566838157113       -0.48156201710100       -0.31935555880099
H            2.90542310262550        0.28635195254572        0.17284772414030
H            3.05347684884742       -0.48382524096159       -1.15559571617428
O           -4.75421734197124        0.76102217172746        0.49572670588621
H           -5.15613264631125       -0.10062646414333        0.25971986660978
H           -4.88695459271576        0.86690061520141        1.45240332693693
O            4.34373205497312        2.45870748928985       -3.50695863861739
H            4.39061122334888        2.89562904399207       -2.64299405144300
H            3.54236495830145        2.78500921445357       -3.94491800149302
O           -0.45875260399931       -1.00658081905940        5.15912534112617
H           -1.11549758002703       -0.97590838538210        4.43095451082387
H            0.41583960139312       -0.93435117659658        4.73483246769822
O           -0.92980195484804       -3.97210401635607       -4.29853599738024
H           -1.02082351191038       -3.83768909215335       -3.32456775419250
H           -1.17581309793472       -4.88020100660238       -4.47462481799819
O            4.87242422743320       -2.54236650018392       -1.77716624408434
H            3.92219709268488       -2.68568588113221       -1.97660829756366
H            5.07639112534840       -1.69799074351278       -2.19090620646393
O           -4.57594145761507        0.92011560974671        3.23187660846733
H           -3.69649001669938        1.35734433694410        3.17107249369560
H           -5.08170028271013        1.41044791169086        3.87891110553841
O            1.86534462660708       -0.55238464903935        3.71247881774167
H            1.29982065024482       -0.50809894263797        2.91258876708220
H            1.91520380551554        0.36117627421016        4.05375364117481
O            4.42661350677520       -5.40365690307722       -1.55513023786105
H            4.82033253369749       -4.53813110253746       -1.71898418934300
H            4.17929908922545       -5.41822219772826       -0.62231753258104
O            4.51884810133920        3.31313928752512       -0.83850273943875
H            5.37038936900752        3.68486277361125       -0.61027799817989
H            4.37847368263149        2.54930324714326       -0.23762514991343
O            3.98608879148875       -2.44272847680117        0.76199894513959
H            4.56766791049567       -2.52061412249297       -0.01846958713245
H            3.27770453942617       -1.83098905105104        0.45612311645453
O            2.55802716605105       -1.04130262990522       -4.87223383557558
H            2.47259788149580       -2.00181296272681       -4.98204264030858
H            1.65383550054291       -0.71478699771827       -4.71729617288400
O            3.75810080322145       -0.04044967175804       -2.73081604998700
H            4.17320923690073        0.78064269706937       -3.06666217450734
H            3.37834733551638       -0.47671150979691       -3.53197494045315
O           -2.17402566535475        0.02054295844077        0.49627796971221
H           -1.75954848590868        0.51353889156995       -0.23737693231336
H           -3.09445131952526        0.35588341003680        0.54143031834051
O           -1.36620683302863        2.10629075890109       -4.19796469855230
H           -2.21862184533289        1.72876927178826       -4.53443388542890
H           -1.34523130446664        3.03360945874177       -4.43370407210037
O            0.51211171803497        5.00494815368405        1.31567260064781
H            0.14881034746699        5.88810362008501        1.35879762387991
H           -0.24413436547166        4.38998066890211        1.12969713052559
O           -2.21504552788565       -0.95087052930849        3.14375373325923
H           -2.07456056362670       -1.87037446630662        2.80711358529950
H           -3.16017781269057       -0.82202832791015        3.25413640134639
O           -3.60828624352732        0.92278569699959       -4.87328521543679
H           -4.02099313753509        0.95894724888926       -3.99848453291429
H           -3.29976706103854        0.01504178224847       -5.00716330112031
O           -2.15713979762315       -1.52645409717866       -4.74953329500217
H           -1.84402320872145       -2.43722327653631       -4.84235942753002
H           -2.41584849775958       -1.43555559677326       -3.79818884415619
O           -2.61942754125431       -0.94700728813510       -2.23295121603894
H           -1.74721647594816       -0.62439789032080       -1.96122713866392
H           -3.19997202809703       -0.16555049324037       -2.18984330879195
O            1.83823135814152       -3.73796981264473       -4.57061877155656
H            2.03078536054614       -3.41558523533623       -3.66347286138464
H            0.87004842325885       -3.75778655273058       -4.64130679427900
O           -0.01877113258786        4.42277949453676       -2.93963889928175
H            0.47041622954376        3.98656807832792       -3.65499396414892
H            0.61231340477562        4.41186566366900       -2.20090605588582
O           -1.30470738995600        3.19060318354605        0.68775928563825
H           -0.54454478664309        2.58069804726667        0.48551957879771
H           -1.76005781121958        3.31334711249037       -0.16388366446052
O            2.20472596756832       -6.06409781645793       -3.04481895789425
H            3.10592340895821       -5.98927849439376       -2.68081226146329
H            2.15494997442762       -5.40327936422685       -3.75792104605167
O           -2.36099431073743        3.78022508531900       -1.79878606416485
H           -1.49640159955972        3.94363389478418       -2.24748343349358
H           -2.87695037809572        4.57800419506192       -1.91157340435015
O           -1.05366186004828        1.30240410540610       -1.58616022838487
H           -0.09124659107230        1.39960745638178       -1.53554346332545
H           -1.29382870791452        1.65310714043222       -2.45817841476763
O            1.86719719931911        4.07100482671319       -0.96710638971101
H            1.51714889933397        4.38887217866077       -0.12117889199660
H            2.82969491474420        4.01331033836817       -0.88107182197075
O           -0.76323194050435        1.71436973250094        5.28832807034669
H           -1.27767428592997        1.84608527589169        4.46971927869507
H           -0.77052149444757        0.75092561192277        5.45681802010986
